&aerosol_nl
 aer_drydep_list		= 'bc_a1', 'bc_a4', 'dst_a1', 'dst_a2', 'dst_a3', 'ncl_a1', 'ncl_a2', 'ncl_a3', 'num_a1', 'num_a2',
         'num_a3', 'num_a4', 'pom_a1', 'pom_a4', 'so4_a1', 'so4_a2', 'so4_a3', 'soa1_a1', 'soa1_a2', 'soa2_a1',
         'soa2_a2', 'soa3_a1', 'soa3_a2', 'soa4_a1', 'soa4_a2', 'soa5_a1', 'soa5_a2'
 aer_wetdep_list		= 'bc_a1', 'bc_a4', 'dst_a1', 'dst_a2', 'dst_a3', 'ncl_a1', 'ncl_a2', 'ncl_a3', 'num_a1', 'num_a2',
         'num_a3', 'num_a4', 'pom_a1', 'pom_a4', 'so4_a1', 'so4_a2', 'so4_a3', 'soa1_a1', 'soa1_a2', 'soa2_a1',
         'soa2_a2', 'soa3_a1', 'soa3_a2', 'soa4_a1', 'soa4_a2', 'soa5_a1', 'soa5_a2'
 modal_accum_coarse_exch		= .true.
 modal_strat_sulfate		= .true.
 seasalt_emis_scale		= 1.00D0
 sol_factb_interstitial		= 0.1D0
 sol_facti_cloud_borne		= 1.0D0
 sol_factic_interstitial		= 0.4D0
/
&aoa_tracers_nl
 aoa_tracers_flag		= .true.
/
&blj_nl
 do_beljaars		=  .true.  
/
&cam_history_nl
 avgflag_pertape		= 'A','I','I','I','I','I','A'
 fincl1		= 'CFC11STAR', 'AODDUST', 'AODDUST2', 'T', 'U', 'V', 'O3', 'OH', 'NO3',
         'HO2', 'LNO_COL_PROD', 'NO2_CLXF', 'SFNO', 'SFNH3', 'BRO', 'CH3CL', 'CLO', 'CO2',
         'HCL', 'HO2', 'HOCL', 'H2O', 'PHIS', 'Z3', 'BENZENE', 'C2H2', 'C2H4',
         'C2H6', 'C3H8', 'CCL4', 'CFC11', 'CFC113', 'CFC12', 'CH2O', 'CH3BR', 'CH3CCL3',
         'CH3CHO', 'CH3CL', 'CH3CN', 'CH3COCH3', 'CH3OH', 'CH4', 'CO', 'H2O2', 'HCFC22',
         'HCN', 'HNO3', 'ISOP', 'MTERP', 'N2O', 'O3', 'O3S', 'O3S_Loss', 'O3S_LOSS',
         'PAN', 'SO2', 'TOLUENE', 'OH', 'ALKNIT', 'ALKOOH', 'BCARY', 'BENZENE', 'BENZOOH',
         'BEPOMUC', 'BIGALD', 'BIGALD1', 'BIGALD2', 'BIGALD3', 'BIGALD4', 'BIGALK', 'BIGENE', 'BR',
         'BRCL', 'BRO', 'BRONO2', 'BRY', 'BZALD', 'BZOOH', 'C2H2', 'C2H4', 'C2H5OH',
         'C2H5OOH', 'C2H6', 'C3H6', 'C3H7OOH', 'C3H8', 'C6H5OOH', 'CCL4', 'CF2CLBR', 'CF3BR',
         'CFC11', 'CFC113', 'CFC114', 'CFC115', 'CFC12', 'CH2BR2', 'CH2O', 'CH3BR', 'CH3CCL3',
         'CH3CHO', 'CH3CL', 'CH3CN', 'CH3COCH3', 'CH3COCHO', 'CH3COOH', 'CH3COOOH', 'CH3OH', 'CH3OOH',
         'CH4', 'CHBR3', 'CL', 'CL2', 'CL2O2', 'CLO', 'CLONO2', 'CLY', 'CO',
         'CO2', 'COF2', 'COFCL', 'CRESOL', 'DMS', 'EOOH', 'F', 'GLYALD', 'GLYOXAL',
         'H', 'H2', 'H2402', 'H2O2', 'H2SO4', 'HBR', 'HCFC141B', 'HCFC142B', 'HCFC22',
         'HCL', 'HCN', 'HCOOH', 'HF', 'HNO3', 'HO2NO2', 'HOBR', 'HOCL', 'HONITR',
         'HPALD', 'HYAC', 'HYDRALD', 'IEPOX', 'ISOP', 'ISOPNITA', 'ISOPNITB', 'ISOPNO3', 'ISOPNOOH',
         'ISOPOOH', 'IVOC', 'MACR', 'MACROOH', 'MEK', 'MEKOOH', 'MPAN', 'MTERP', 'MVK',
         'N', 'N2O', 'N2O5', 'NC4CH2OH', 'NC4CHO', 'NH3', 'NH4', 'NO', 'NO2',
         'NO3', 'NOA', 'NTERPOOH', 'O', 'OCLO', 'OCS', 'ONITR', 'PAN', 'PBZNIT',
         'PHENO', 'PHENOL', 'PHENOOH', 'POOH', 'ROOH', 'S', 'SF6', 'SO', 'SO2',
         'SO3', 'SOAG0', 'SOAG1', 'SOAG2', 'SOAG3', 'SOAG4', 'SVOC', 'TEPOMUC', 'TERP2OOH',
         'TERPNIT', 'TERPOOH', 'TERPROD1', 'TERPROD2', 'TOLOOH', 'TOLUENE', 'XOOH', 'XYLENES', 'XYLENOOH',
         'XYLOL', 'XYLOLOOH', 'NHDEP', 'NDEP', 'ACBZO2', 'ALKO2', 'BENZO2', 'BZOO', 'C2H5O2',
         'C3H7O2', 'C6H5O2', 'CH3CO3', 'CH3O2', 'DICARBO2', 'ENEO2', 'EO', 'EO2', 'HO2',
         'HOCH2OO', 'ISOPAO2', 'ISOPBO2', 'MACRO2', 'MALO2', 'MCO3', 'MDIALO2', 'MEKO2', 'NTERPO2',
         'O1D', 'OH', 'PHENO2', 'PO2', 'RO2', 'TERP2O2', 'TERPO2', 'TOLO2', 'XO2',
         'XYLENO2', 'XYLOLO2', 'H2O', 'SAD_ICE', 'SAD_LNAT', 'SAD_SULFC', 'SAD_TROP', 'SAD_AERO', 'REFF_AERO',
         'PDELDRY', 'RAD_ICE', 'RAD_LNAT', 'RAD_SULFC', 'H2SO4M_C', 'HNO3_GAS', 'HNO3_STS', 'HNO3_NAT', 'VEL_NAT2',
         'NITROP_PD', 'NOX', 'NOY', 'CLOX', 'CLOY', 'BROX', 'BROY', 'TCLY', 'TOTH',
         'MASS', 'TBRY', 'HCL_GAS', 'wet_deposition_NHx_as_N', 'wet_deposition_NOy_as_N', 'HCL_GAS', 'dgnumwet1', 'dgnumwet2', 'dgnumwet3',
         'ABSORB', 'AODVISdn', 'AODdnMODE1', 'AODVISstdn', 'AODNIRstdn', 'AODUVstdn', 'AODdnMODE2', 'AODdnMODE3', 'AODdnDUST1',
         'AODdnDUST2', 'AODdnDUST3', 'AODVISstdn', 'AODUVstdn', 'AODNIRstdn', 'AODNIRstdn', 'AODVISdn', 'AODUVdn', 'EXTINCTdn',
         'EXTxASYMdn', 'EXTINCTNIRdn', 'EXTINCTUVdn', 'WD_ALKNIT', 'WD_ALKOOH', 'WD_BENZOOH', 'WD_BRONO2', 'WD_BZOOH', 'WD_C2H5OH',
         'WD_C2H5OOH', 'WD_C3H7OOH', 'WD_C6H5OOH', 'WD_CH2O', 'WD_CH3CHO', 'WD_CH3CN', 'WD_CH3COCHO', 'WD_CH3COOH', 'WD_CH3COOOH',
         'WD_CH3COCH3', 'WD_CH3OH', 'WD_CH3OOH', 'WD_CLONO2', 'WD_COF2', 'WD_COFCL', 'WD_EOOH', 'WD_GLYALD', 'WD_H2O2',
         'WD_H2SO4', 'WD_HBR', 'WD_HCL', 'WD_HCN', 'WD_HCOOH', 'WD_HF', 'WD_HNO3', 'WD_HO2NO2', 'WD_HOBR',
         'WD_HOCL', 'WD_HONITR', 'WD_HPALD', 'WD_HYAC', 'WD_HYDRALD', 'WD_IEPOX', 'WD_ISOPNITA', 'WD_ISOPNITB', 'WD_ISOPNO3',
         'WD_ISOPNOOH', 'WD_ISOPOOH', 'WD_IVOC', 'WD_MACR', 'WD_MACROOH', 'WD_MEKOOH', 'WD_MVK', 'WD_NC4CH2OH', 'WD_NC4CHO',
         'WD_NDEP', 'WD_NH3', 'WD_NH4', 'WD_NHDEP', 'WD_NOA', 'WD_NTERPOOH', 'WD_ONITR', 'WD_PHENOOH', 'WD_POOH',
         'WD_ROOH', 'WD_SO2', 'WD_SOAG0', 'WD_SOAG1', 'WD_SOAG2', 'WD_SOAG3', 'WD_SOAG4', 'WD_SVOC', 'WD_TERP2OOH',
         'WD_TERPNIT', 'WD_TERPOOH', 'WD_TERPROD1', 'WD_TERPROD2', 'WD_TOLOOH', 'WD_XOOH', 'WD_XYLENOOH', 'WD_XYLOLOOH', 'DF_ALKNIT',
         'DF_ALKOOH', 'DF_BENZOOH', 'DF_BZOOH', 'DF_C2H5OH', 'DF_C2H5OOH', 'DF_C3H7OOH', 'DF_C6H5OOH', 'DF_CH2O', 'DF_CH3CHO',
         'DF_CH3CN', 'DF_CH3COCH3', 'DF_CH3COCHO', 'DF_CH3COOH', 'DF_CH3COOOH', 'DF_CH3OH', 'DF_CH3OOH', 'DF_CO', 'DF_EOOH',
         'DF_GLYALD', 'DF_H2O2', 'DF_H2SO4', 'DF_HCN', 'DF_HCOOH', 'DF_HNO3', 'DF_HO2NO2', 'DF_HONITR', 'DF_HPALD',
         'DF_HYAC', 'DF_HYDRALD', 'DF_IEPOX', 'DF_ISOPNITA', 'DF_ISOPNITB', 'DF_ISOPNO3', 'DF_ISOPNOOH', 'DF_ISOPOOH', 'DF_IVOC',
         'DF_MACROOH', 'DF_MEKOOH', 'DF_MPAN', 'DF_NC4CH2OH', 'DF_NC4CHO', 'dry_deposition_NHx_as_N', 'DF_NH3', 'DF_NH4', 'DF_NO',
         'DF_NO2', 'DF_NOA', 'DF_NTERPOOH', 'DF_O3', 'DF_ONITR', 'DF_PAN', 'DF_PHENOOH', 'DF_POOH', 'DF_ROOH',
         'DF_SO2', 'DF_SOAG0', 'DF_SOAG1', 'DF_SOAG2', 'DF_SOAG3', 'DF_SOAG4', 'DF_SVOC', 'DF_TERP2OOH', 'DF_TERPNIT',
         'DF_TERPOOH', 'DF_TERPROD1', 'DF_TERPROD2', 'DF_TOLOOH', 'DF_XOOH', 'DF_XYLENOOH', 'DF_XYLOLOOH', 'dry_deposition_NOy_as_N', 'SO2_CLXF',
         'SO2_XFRC', 'SVOC_CLXF', 'CO_CLXF', 'NO2_CLXF', 'LNO_PROD', 'LNO_COL_PROD', 'SFISOP', 'SFMTERP', 'SFBCARY',
         'SFCH3OH', 'SFC2H5OH', 'SFCH3CHO', 'SFMEK', 'SFHCN', 'SFCH3CN', 'SFCH2O', 'SFC2H6', 'SFC3H8',
         'SFC2H4', 'SFC3H6', 'SFCH3COCH3', 'SFBIGALK', 'SFBIGENE', 'SFBENZENE', 'SFTOLUENE', 'SFXYLENES', 'SFCO',
         'SFNO', 'SFC2H2', 'SFHCOOH', 'SFCH3COOH', 'SFCH3COCH3', 'SFDMS', 'SFMEK', 'SFSO2', 'SFNH3',
         'SFIVOC', 'SFSVOC', 'MEG_ISOP', 'MEG_MTERP', 'MEG_BCARY', 'MEG_CH3OH', 'MEG_C2H5OH', 'MEG_CH2O', 'MEG_CH3CHO',
         'MEG_CH3COOH', 'MEG_CH3COCH3', 'MEG_HCOOH', 'MEG_HCN', 'MEG_CO', 'MEG_C2H6', 'MEG_C2H4', 'MEG_C3H8', 'MEG_C3H6',
         'MEG_BIGALK', 'MEG_BIGENE', 'MEG_TOLUENE', 'Dso4_a1CHM', 'Dso4_a2CHM', 'Dso4_a3CHM', 'DO3CHM', 'DCOCHM', 'DHNO3CHM',
         'DH2O2CHM', 'CH4_CHML', 'CO_CHMP', 'CO_CHML', 'CH3CCL3_CHML', 'CO2_CHML', 'AQ_SO2', 'GS_SO2', 'SO2_CHML',
         'SO2_CHMP', 'SO2_CLXF', 'SOAG0_CHMP', 'SOAG1_CHMP', 'SOAG2_CHMP', 'SOAG3_CHMP', 'SOAG4_CHMP', 'IVOC_CHMP', 'SVOC_CHML',
         'MASS', 'ABSORB', 'WD_H2SO4', 'WD_IVOC', 'WD_SO2', 'WD_SOAG0', 'WD_SOAG1', 'WD_SOAG2', 'WD_SOAG3',
         'WD_SOAG4', 'WD_SVOC', 'DF_CO', 'DF_IVOC', 'DF_O3', 'DF_SO2', 'DF_SOAG0', 'DF_SOAG1', 'DF_SOAG2',
         'DF_SOAG3', 'DF_SOAG4', 'DF_SVOC', 'SO2_CLXF', 'SVOC_CLXF', 'SFISOP', 'SFMTERP', 'SFCH3OH', 'SFCH3COCH3',
         'SFCO', 'SFIVOC', 'SFSVOC', 'DO3CHM', 'DCOCHM', 'O3_CHMP', 'O3_CHML', 'CH4_CHML', 'CO_CHMP',
         'CO_CHML', 'CH3CCL3_CHML', 'SO2_CHML', 'SO2_CHMP', 'SO2_CLXF', 'SOAG0_CHMP', 'SOAG1_CHMP', 'SOAG2_CHMP', 'SOAG3_CHMP',
         'SOAG4_CHMP', 'O3_Prod', 'O3_Loss', 'OddOx_Ox_Loss', 'OddOx_HOx_Loss', 'OddOx_NOx_Loss', 'OddOx_CLOxBROx_Loss', 'OddOx_Loss_Tot', 'OddOx_Prod_Tot',
         'r_HO2_O3', 'r_OH_O3', 'r_OH_O', 'r_O1D_H2O', 'r_het1', 'r_het2', 'r_het3', 'r_het4', 'r_het5',
         'r_het6', 'jo3_a', 'jno2', 'jpan', 'jh2o2', 'jcl2o2', 'bc_a1', 'bc_a4', 'dst_a1',
         'dst_a2', 'dst_a3', 'ncl_a1', 'ncl_a1', 'ncl_a2', 'ncl_a3', 'pom_a1', 'pom_a4', 'so4_a1',
         'so4_a2', 'so4_a3', 'soa1_a1', 'soa2_a1', 'soa3_a1', 'soa4_a1', 'soa5_a1', 'soa1_a2', 'soa2_a2',
         'soa3_a2', 'soa4_a2', 'soa5_a2', 'bc_c1', 'bc_c4', 'dst_c1', 'dst_c2', 'dst_c3', 'ncl_c1',
         'ncl_c1', 'ncl_c2', 'ncl_c3', 'pom_c1', 'pom_c4', 'so4_c1', 'so4_c2', 'so4_c3', 'soa1_c1',
         'soa2_c1', 'soa3_c1', 'soa4_c1', 'soa5_c1', 'soa1_c2', 'soa2_c2', 'soa3_c2', 'soa4_c2', 'soa5_c2',
         'num_a1', 'num_a2', 'num_a3', 'num_a4', 'num_c1', 'num_c2', 'num_c3', 'num_c4', 'bc_a1SFWET',
         'bc_a4SFWET', 'dst_a1SFWET', 'dst_a2SFWET', 'dst_a3SFWET', 'ncl_a1SFWET', 'ncl_a2SFWET', 'ncl_a3SFWET', 'pom_a1SFWET', 'pom_a4SFWET',
         'so4_a1SFWET', 'so4_a2SFWET', 'so4_a3SFWET', 'soa1_a1SFWET', 'soa1_a2SFWET', 'soa2_a1SFWET', 'soa2_a2SFWET', 'soa3_a1SFWET', 'soa3_a2SFWET',
         'soa4_a1SFWET', 'soa4_a2SFWET', 'soa5_a1SFWET', 'soa5_a2SFWET', 'bc_c1SFWET', 'bc_c4SFWET', 'dst_c1SFWET', 'dst_c2SFWET', 'dst_c3SFWET',
         'ncl_c1SFWET', 'ncl_c2SFWET', 'ncl_c3SFWET', 'pom_c1SFWET', 'pom_c4SFWET', 'so4_c1SFWET', 'so4_c2SFWET', 'so4_c3SFWET', 'soa1_c1SFWET',
         'soa1_c2SFWET', 'soa2_c1SFWET', 'soa2_c2SFWET', 'soa3_c1SFWET', 'soa3_c2SFWET', 'soa4_c1SFWET', 'soa4_c2SFWET', 'soa5_c1SFWET', 'soa5_c2SFWET',
         'bc_a1DDF', 'bc_a4DDF', 'dst_a1DDF', 'dst_a2DDF', 'dst_a3DDF', 'ncl_a1DDF', 'ncl_a2DDF', 'ncl_a3DDF', 'pom_a1DDF',
         'pom_a4DDF', 'so4_a1DDF', 'so4_a2DDF', 'so4_a3DDF', 'soa1_a1DDF', 'soa1_a2DDF', 'soa2_a1DDF', 'soa2_a2DDF', 'soa3_a1DDF',
         'soa3_a2DDF', 'soa4_a1DDF', 'soa4_a2DDF', 'soa5_a1DDF', 'soa5_a2DDF', 'bc_c1DDF', 'bc_c4DDF', 'dst_c1DDF', 'dst_c2DDF',
         'dst_c3DDF', 'ncl_c1DDF', 'ncl_c2DDF', 'ncl_c3DDF', 'pom_c1DDF', 'pom_c4DDF', 'so4_c1DDF', 'so4_c2DDF', 'so4_c3DDF',
         'soa1_c1DDF', 'soa1_c2DDF', 'soa2_c1DDF', 'soa2_c2DDF', 'soa3_c1DDF', 'soa3_c2DDF', 'soa4_c1DDF', 'soa4_c2DDF', 'soa5_c1DDF',
         'soa5_c2DDF', 'num_a1DDF', 'num_a2DDF', 'num_a3DDF', 'num_a4DDF', 'num_c1DDF', 'num_c2DDF', 'num_c3DDF', 'num_c4DDF',
         'bc_a4_CLXF', 'pom_a4_CLXF', 'so4_a1_CLXF', 'so4_a2_CLXF', 'num_a1_CLXF', 'num_a2_CLXF', 'SFbc_a4', 'SFpom_a4', 'SFso4_a1',
         'SFso4_a2', 'SFnum_a1', 'SFnum_a2', 'SFnum_a3', 'so4_a1_sfgaex1', 'so4_a2_sfgaex1', 'so4_a3_sfgaex1', 'soa1_a1_sfgaex1', 'soa1_a2_sfgaex1',
         'soa2_a1_sfgaex1', 'soa2_a2_sfgaex1', 'soa3_a1_sfgaex1', 'soa3_a2_sfgaex1', 'soa4_a1_sfgaex1', 'soa4_a2_sfgaex1', 'soa5_a1_sfgaex1', 'soa5_a2_sfgaex1', 'so4_a2_sfnnuc1',
         'so4_c1AQH2SO4', 'so4_c2AQH2SO4', 'so4_c3AQH2SO4', 'so4_c1AQSO4', 'so4_c2AQSO4', 'so4_c3AQSO4', 'SFdst_a1', 'SFdst_a2', 'SFdst_a3',
         'SFncl_a1', 'SFncl_a2', 'SFncl_a3', 'soa1_a1_CHML', 'soa2_a1_CHML', 'soa3_a1_CHML', 'soa4_a1_CHML', 'soa5_a1_CHML', 'soa1_a2_CHML',
         'soa2_a2_CHML', 'soa3_a2_CHML', 'soa4_a2_CHML', 'soa5_a2_CHML', 'so4_a1_CHMP', 'so4_a2_CHMP', 'so4_a3_CHMP', 'soa1_a1_CHMP', 'soa2_a1_CHMP',
         'soa3_a1_CHMP', 'soa4_a1_CHMP', 'soa5_a1_CHMP', 'soa1_a2_CHMP', 'soa2_a2_CHMP', 'soa3_a2_CHMP', 'soa4_a2_CHMP', 'soa5_a2_CHMP', 'r_jsoa1_a1',
         'r_jsoa2_a1', 'r_jsoa3_a1', 'r_jsoa4_a1', 'r_jsoa5_a1', 'r_jsoa1_a2', 'r_jsoa2_a2', 'r_jsoa3_a2', 'r_jsoa4_a2', 'r_jsoa5_a2',
         'r_GLYOXAL_aer', 'H2SO4_sfnnuc1', 'num_a2_sfnnuc1', 'TMOCS', 'TMSO2', 'TMDMS', 'TMso4_a1', 'TMso4_a2', 'TMso4_a3',
         'BURDENDUSTdn', 'BURDENPOMdn', 'BURDENSO4dn', 'BURDENSOAdn', 'BURDENSEASALTdn', 'BURDENBCdn', 'PM25', 'PBLH', 'CLOUD',
         'E90', 'PS', 'AREA', 'CLDHGH', 'CLDLOW', 'Q', 'CLDMED', 'CLDTOT', 'PHIS',
         'MEG_XYLENES', 'MEG_BZALD', 'MEG_MEK', 'r_ISOP_OH', 'r_ISOPBO2_NO', 'r_ISOPAO2_NO', 'r_ISOPBO2_HO2', 'r_ISOPBO2_CH3O2', 'r_ISOPBO2_CH3CO3',
         'r_ISOPAO2_HO2', 'r_ISOPAO2_CH3O2', 'r_ISOPAO2_CH3CO3', 'r_ISOPBO2_M', 'r_ISOPAO2_NO3', 'r_ISOPBO2_NO3', 'WD_ALKNIT', 'WD_HONITR', 'WD_NC4CHO',
         'WD_NOA', 'WD_NTERPOOH', 'WD_ONITR', 'WD_TERPNIT', 'WD_ISOPNITA', 'WD_ISOPNITB', 'WD_ISOPNOOH', 'WD_NC4CH2OH', 'DF_ALKNIT',
         'DF_HONITR', 'DF_NC4CHO', 'DF_NOA', 'DF_NTERPOOH', 'DF_ONITR', 'DF_TERPNIT', 'DF_ISOPNITA', 'DF_ISOPNITB', 'DF_ISOPNOOH',
         'DF_NC4CH2OH', 'r_jonitr', 'r_jhonitr', 'r_HONITR_OH', 'r_jalknit', 'r_ALKNIT_OH', 'r_ISOPNITA_OH', 'r_ISOPNITB_OH', 'r_ISOPNOOH_OH',
         'r_jisopnooh', 'r_NC4CH2OH_OH', 'r_NC4CHO_OH', 'r_jnc4cho', 'r_jnoa', 'r_NOA_OH', 'r_NTERPOOH_OH', 'r_jnterpooh', 'r_TERPNIT_OH',
         'r_jterpnit', 'r_NTERPO2_CH3O2', 'r_NTERPO2_HO2', 'r_NTERPO2_NO', 'r_NTERPO2_NO3', 'r_ISOPNITA_aer', 'r_ISOPNITB_aer', 'r_NC4CH2OH_aer', 'r_HONITR_aer',
         'r_TERPNIT_aer', 'r_ONITR_aer', 'r_NTERPOOH_aer', 'r_NC4CHO_aer', 'M_dens', 'PMID', 'RHO_CLUBB', 'HEIGHT', 'DTWR_ALKNIT',
         'DTWR_HONITR', 'DTWR_ONITR', 'DTWR_NC4CHO', 'DTWR_NOA', 'DTWR_NTERPOOH', 'DTWR_TERPNIT', 'DTWR_ISOPNITA', 'DTWR_ISOPNITB', 'DTWR_ISOPNOOH',
         'DTWR_NC4CH2OH', 'Nudge_U', 'Nudge_V', 'Nudge_T', 'Nudge_Q', 'Target_U', 'Target_V', 'Target_T', 'Target_Q',
         'RO2_NO_sum', 'O3_alkenes', 'RO2_NO3_sum', 'RO2_HO2_sum', 'RO2_RO2_sum', 'RCO2_NO2_sum', 'Ox_Prod', 'Ox_Loss', 'RELHUM',
         'XPH_LWC', 'LWC', 'wat_a1', 'wat_a2', 'wat_a3', 'r_BCARY_NO3_vbs', 'r_BCARY_O3_vbs', 'r_BCARY_OH_vbs', 'r_BENZENE_OH_vbs',
         'r_ISOP_NO3_vbs', 'r_ISOP_O3_vbs', 'r_ISOP_OH_vbs', 'r_IVOC_OH', 'r_MTERP_NO3_vbs', 'r_MTERP_O3_vbs', 'r_MTERP_OH_vbs', 'r_SVOC_OH', 'r_TOLUENE_OH_vbs',
         'r_XYLENES_OH_vbs', 'PRECC', 'PRECL', 'PRECSH', 'SWCF'
 fincl2		= 'U', 'V', 'TROP_P', 'TROP_T', 'O3S', 'CLDLOW', 'CLDMED', 'CLDHGH', 'CLOUD', 'TGCLDIWP', 'TGCLDLWP',
         'O3', 'PDELDRY', 'Nudge_U', 'Nudge_V', 'Nudge_T', 'Target_U', 'Target_V', 'Target_T', 'T', 'CLDTOT', 'U10',
         'T925'
 fincl3		= 'T', 'U', 'V', 'O3', 'OH', 'NO3', 'E90', 'HO2', 'CH2O', 'CH3CHO',
         'CH3COCH3', 'CH3OH', 'H2O2', 'HCN', 'HNO3', 'ISOP', 'N2O', 'PAN', 'SO2', 'ALKNIT',
         'CH3COCHO', 'CH3COOH', 'BCARY', 'GLYALD', 'GLYOXAL', 'H2SO4', 'HO2NO2', 'HONITR', 'HPALD', 'HYAC',
         'HYDRALD', 'IEPOX', 'ISOP', 'ISOPNO3', 'ISOPOOH', 'IVOC', 'MACR', 'MACROOH', 'MEK', 'MEKOOH',
         'MPAN', 'MVK', 'N2O5', 'NC4CHO', 'NH3', 'NH4', 'NO', 'NO2', 'NOA', 'NTERPOOH',
         'O', 'ONITR', 'PBZNIT', 'HCOOH', 'SO', 'SO3', 'TERPNIT', 'NOX', 'NOY', 'MTERP',
         'ISOPNITA', 'ISOPNITB', 'ISOPNOOH', 'NC4CH2OH', 'CO', 'C2H2', 'C2H4', 'C2H6', 'C3H6', 'C3H8',
         'CH3CN', 'jo3_a', 'jno2', 'PHIS', 'PS', 'jh2o2', 'jn2o5_a', 'jhno3', 'jho2no2_b', 'jch2o_a',
         'jch2o_b', 'jch3cho', 'jch3ooh', 'jpan', 'jmacr_a', 'jmacr_b', 'jmvk', 'jacet', 'jmgly', 'M_dens',
         'Z3', 'ALKOOH', 'BENZENE', 'BIGALD', 'BIGALK', 'BIGENE', 'C2H5OH', 'CH3COOOH', 'CH3OOH', 'CRESOL',
         'EOOH', 'PHENOL', 'POOH', 'ROOH', 'SVOC', 'TERPOOH', 'TERP2OOH', 'TERPROD1', 'TERPROD2', 'TOLUENE',
         'XYLENES', 'XYLOL', 'O3S', 'PMID', 'PM25', 'Q', 'BENZOOH', 'BEPOMUC', 'BIGALD1', 'BIGALD2',
         'BIGALD3', 'BIGALD4', 'BZALD', 'BZOOH', 'C2H5OOH', 'C3H7OOH', 'C6H5OOH', 'DMS', 'PHENOOH', 'TEPOMUC',
         'TOLOOH', 'XOOH', 'XYLENOOH', 'XYLOLOOH', 'CH3O2', 'CH3CO3', 'O1D', 'H2O', 'bc_a1', 'bc_a4',
         'dst_a1', 'dst_a2', 'dst_a3', 'ncl_a1', 'ncl_a2', 'ncl_a3', 'pom_a1', 'pom_a4', 'so4_a1', 'so4_a2',
         'so4_a3', 'soa1_a1', 'soa2_a1', 'soa3_a1', 'soa4_a1', 'soa5_a1', 'soa1_a2', 'soa2_a2', 'soa3_a2', 'soa4_a2',
         'soa5_a2', 'bc_c1', 'bc_c4', 'dst_c1', 'dst_c2', 'dst_c3', 'ncl_c1', 'ncl_c1', 'ncl_c2', 'ncl_c3',
         'pom_c1', 'pom_c4', 'so4_c1', 'so4_c2', 'so4_c3', 'soa1_c1', 'soa2_c1', 'soa3_c1', 'soa4_c1', 'soa5_c1',
         'soa1_c2', 'soa2_c2', 'soa3_c2', 'soa4_c2', 'soa5_c2', 'num_a1', 'num_a2', 'num_a3', 'num_a4', 'num_c1',
         'num_c2', 'num_c3', 'num_c4', 'SOAG0', 'SOAG1', 'SOAG2', 'SOAG3', 'SOAG4', 'SFISOP', 'SFNO',
         'DV_O3', 'DV_H2O2', 'DV_HPALD', 'DV_ISOPOOH', 'DV_IEPOX', 'DV_ISOPNITA', 'DV_ISOPNITB', 'DV_HNO3', 'DV_HONITR', 'DV_NOA',
         'DV_HYAC', 'DV_HCN', 'DV_HCOOH', 'DV_CH3COOOH', 'DV_ISOPNOOH', 'DV_NTERPOOH', 'r_ISOPNITA_aer', 'r_ISOPNITB_aer', 'r_NC4CH2OH_aer', 'r_HONITR_aer',
         'r_TERPNIT_aer', 'r_ONITR_aer', 'r_NTERPOOH_aer', 'r_NC4CHO_aer', 'O3_Prod', 'O3_Loss', 'RO2_NO_sum', 'RO2_NO3_sum', 'RO2_HO2_sum', 'RO2_RO2_sum',
         'RCO2_NO2_sum', 'PBLH', 'RELHUM', 'XPH_LWC', 'LWC', 'wat_a1', 'wat_a2', 'wat_a3', 'LWCF', 'SWCF',
         'OMEGA', 'PRECC', 'PRECL', 'CLOUD', 'r_BCARY_NO3_vbs', 'r_BCARY_O3_vbs', 'r_BCARY_OH_vbs', 'r_BENZENE_OH_vbs', 'r_ISOP_NO3_vbs', 'r_ISOP_O3_vbs',
         'r_ISOP_OH_vbs', 'r_IVOC_OH', 'r_MTERP_NO3_vbs', 'r_MTERP_O3_vbs', 'r_MTERP_OH_vbs', 'r_SVOC_OH', 'r_TOLUENE_OH_vbs', 'r_XYLENES_OH_vbs'
 fincl3lonlat		= '271e:274e_31n:34n'
 fincl4		= 'O3','DV_O3','Q','SHFLX','T','QT','USTAR','Z3','PHIS','PMID','RELHUM'
 fincl5		= 'NO_SRF', 'NO2_SRF', 'NOY_SRF', 'CLDTOT', 'MTERP_SRF', 'BCARY_SRF', 'BIGALK_SRF', 'BIGENE_SRF',
         'TOLUENE_SRF', 'BENZENE_SRF', 'XYLENES_SRF', 'PAN_SRF', 'CO_SRF', 'CH2O_SRF', 'C2H2_SRF', 'C2H4_SRF',
         'C2H6_SRF', 'C3H6_SRF', 'C3H8_SRF', 'CH3CN_SRF', 'HCN_SRF', 'jno2', 'O3S_SRF', 'PS',
         'PM25_SRF', 'bc_a1_SRF', 'bc_a4_SRF', 'dst_a1_SRF', 'dst_a2_SRF', 'dst_a3_SRF', 'ncl_a1_SRF', 'ncl_a2_SRF',
         'ncl_a3_SRF', 'pom_a1_SRF', 'pom_a4_SRF', 'so4_a1_SRF', 'so4_a2_SRF', 'so4_a3_SRF', 'soa1_a1_SRF', 'soa2_a1_SRF',
         'soa3_a1_SRF', 'soa4_a1_SRF', 'soa5_a1_SRF', 'soa1_a2_SRF', 'soa2_a2_SRF', 'soa3_a2_SRF', 'soa4_a2_SRF', 'soa5_a2_SRF',
         'SFISOP', 'SFNO', 'NO_CLXF', 'SFNO2', 'SFCO', 'PBLH', 'XPH_LWC', 'LWC',
         'CLOUD'
 fincl6		= 'NO2','CO','CH2O','AODVIS','NH3','ISOP'
 fincl7		= 'UTGWORO', 'UTGWSPEC', 'BUTGWSPEC', 'T', 'U', 'V', 'OMEGA', 'PRECC', 'PRECL', 'RELHUM', 'CLOUD', 'CLDTOT',
         'SWCF', 'U10', 'T850', 'T925', 'T9251000', 'SFNO', 'SFCO', 'LWCF'
 inithist		= 'MONTHLY'
 interpolate_output		= .false.,.false.,.false.,.false.,.false.,.false.,.false.
 mfilt		= 1,4,24,24,24,24,1
 nhtfrq		= 0,-6,-1,-1,-1,-1,-24
/
&cam_initfiles_nl
 bnd_topo		= '/glade/p/cesmdata/cseg/inputdata/atm/cam/topo/se/ne30np4_nc3000_Co060_Fi001_PF_nullRR_Nsw042_20171020.nc'
 cam_branch_file		= 'opt_se_cslam_nov2019.FCHIST.ne30_ne30_mg17.TS1_pecount2700_CAMS_final_2012.cam.r.2013-01-01-00000.nc'
 ncdata		= '/glade/p/acom/acom-nsc/musicav0/initials/opt_se_cslam_nov2019.FCHIST.ne30_ne30_mg17.TS1_pecount2700_CAM_spinup/opt_se_cslam_nov2019.FCHIST.ne30_ne30_mg17.TS1_pecount2700_CAM_spinup.cam.i.2012-12-01-00000.nc'
 use_topo_file		=  .true.  
/
&check_energy_nl
 print_energy_errors		= .false.
/
&chem_inparm
 chem_use_chemtrop		= .true.
 clim_soilw_file		= '/glade/p/cesmdata/cseg/inputdata/atm/cam/chem/trop_mozart/dvel/clim_soilw.nc'
 depvel_file		= '/glade/p/cesmdata/cseg/inputdata/atm/cam/chem/trop_mozart/dvel/depvel_monthly.nc'
 depvel_lnd_file		= '/glade/p/cesmdata/cseg/inputdata/atm/cam/chem/trop_mozart/dvel/regrid_vegetation.nc'
 drydep_srf_file		= '/glade/p/cesmdata/cseg/inputdata/atm/cam/chem/trop_mam/atmsrf_ne30np4_110920.nc'
 ext_frc_specifier		= 'bc_a4 -> /glade/p/cesmdata/cseg/inputdata/atm/cam/chem/emis/CMIP6_emissions_1750_2015/emissions-cmip6_bc_a4_aircraft_vertical_1750-2015_0.9x1.25_c20170608.nc',
         'NO2 -> /glade/p/cesmdata/cseg/inputdata/atm/cam/chem/emis/CMIP6_emissions_1750_2015/emissions-cmip6_NO2_aircraft_vertical_1750-2015_0.9x1.25_c20170608.nc',
         'num_a1 -> /glade/p/acom/acom-climate/cmip6inputs/historical_ne30/emissions-cmip6_num_a1_so4_contvolcano_vertical_850-5000_ne30_ne30_c20191206.nc',
         'num_a2 -> /glade/p/acom/acom-climate/cmip6inputs/historical_ne30/emissions-cmip6_num_a2_so4_contvolcano_vertical_850-5000_ne30_ne30_c20191206.nc',
         'num_a4 -> /glade/p/cesmdata/cseg/inputdata/atm/cam/chem/emis/CMIP6_emissions_1750_2015/emissions-cmip6_num_bc_a4_aircraft_vertical_1750-2015_0.9x1.25_c20170608.nc',
         'SO2 -> /glade/p/cesmdata/cseg/inputdata/atm/cam/chem/emis/CMIP6_emissions_1750_2015/emissions-cmip6_SO2_aircraft_vertical_1750-2015_0.9x1.25_c20170608.nc',
         'SO2 -> /glade/p/acom/acom-climate/cmip6inputs/historical_ne30/emissions-cmip6_SO2_contvolcano_vertical_850-5000_ne30_ne30_c20191206.nc',
         'SO2 -> /glade/p/cesmdata/cseg/inputdata/atm/cam/chem/stratvolc/VolcanEESMv3.11_SO2_850-2016_Mscale_Zreduc_1deg_c180812.nc',
         'so4_a1 -> /glade/p/acom/acom-climate/cmip6inputs/historical_ne30/emissions-cmip6_so4_a1_contvolcano_vertical_850-5000_ne30_ne30_c20191206.nc',
         'so4_a2 -> /glade/p/acom/acom-climate/cmip6inputs/historical_ne30/emissions-cmip6_so4_a2_contvolcano_vertical_850-5000_ne30_ne30_c20191206.nc',
         'num_a1 -> /glade/p/acom/acom-climate/tilmes/emis/CAMS_Anthro_ne30/CAMS-GLOB-ANT_Glb_ne30_ne30_num_so4_a1_anthro-ene_vertical_v3.1_c20191206.nc',
         'so4_a1 -> /glade/p/acom/acom-climate/tilmes/emis/CAMS_Anthro_ne30/CAMS-GLOB-ANT_Glb_ne30_ne30_so4_a1_anthro-ene_vertical_v3.1_c20191206.nc'
 ext_frc_type		= 'INTERP_MISSING_MONTHS'
 lght_no_prd_factor		= 1.80D0
 rsf_file		= '/glade/p/cesmdata/cseg/inputdata/atm/waccm/phot/RSF_GT200nm_v3.0_c080811.nc'
 season_wes_file		= '/glade/p/cesmdata/cseg/inputdata/atm/cam/chem/trop_mozart/dvel/season_wes.nc'
 srf_emis_specifier		= 'BENZENE -> /glade/p/acom/acom-climate/tilmes/emis/CAMS_Anthro_ne30/CAMS-GLOB-ANT_Glb_ne30_ne30_anthro_surface_BENZENE_v3.1_c20191105.nc',
         'BENZENE -> /glade/p/acom/acom-nsc/musicav0/emissions/FINN/ne30np4/comb/emissions-finn1.5_BENZENE_bb_surface_2011_2014_ne30np4.nc',
         'BIGALD -> /glade/p/acom/acom-nsc/musicav0/emissions/FINN/ne30np4/comb/emissions-finn1.5_BIGALD_bb_surface_2011_2014_ne30np4.nc',
         'BIGALK -> /glade/p/acom/acom-climate/tilmes/emis/CAMS_Anthro_ne30/CAMS-GLOB-ANT_Glb_ne30_ne30_anthro_surface_BIGALK_v3.1_c20191105.nc',
         'BIGALK -> /glade/p/acom/acom-nsc/musicav0/emissions/FINN/ne30np4/comb/emissions-finn1.5_BIGALK_bb_surface_2011_2014_ne30np4.nc',
         'BIGENE -> /glade/p/acom/acom-climate/tilmes/emis/CAMS_Anthro_ne30/CAMS-GLOB-ANT_Glb_ne30_ne30_anthro_surface_BIGENE_v3.1_c20191105.nc',
         'BIGENE -> /glade/p/acom/acom-nsc/musicav0/emissions/FINN/ne30np4/comb/emissions-finn1.5_BIGENE_bb_surface_2011_2014_ne30np4.nc',
         'C2H2 -> /glade/p/acom/acom-climate/tilmes/emis/CAMS_Anthro_ne30/CAMS-GLOB-ANT_Glb_ne30_ne30_anthro_surface_C2H2_v3.1_c20191105.nc',
         'C2H2 -> /glade/p/acom/acom-nsc/musicav0/emissions/FINN/ne30np4/comb/emissions-finn1.5_C2H2_bb_surface_2011_2014_ne30np4.nc',
         'C2H4 -> /glade/p/acom/acom-climate/tilmes/emis/CAMS_Anthro_ne30/CAMS-GLOB-ANT_Glb_ne30_ne30_anthro_surface_C2H4_v3.1_c20191105.nc',
         'C2H4 -> /glade/p/acom/acom-nsc/musicav0/emissions/FINN/ne30np4/comb/emissions-finn1.5_C2H4_bb_surface_2011_2014_ne30np4.nc',
         'C2H4 -> /glade/p/acom/acom-climate/cmip6inputs/historical_ne30/emissions-cmip6_C2H4_other_surface_1750_2015_ne30_ne30_c20200103.nc',
         'C2H5OH -> /glade/p/acom/acom-climate/tilmes/emis/CAMS_Anthro_ne30/CAMS-GLOB-ANT_Glb_ne30_ne30_anthro_surface_C2H5OH_v3.1_c20191105.nc',
         'C2H5OH -> /glade/p/acom/acom-nsc/musicav0/emissions/FINN/ne30np4/comb/emissions-finn1.5_C2H5OH_bb_surface_2011_2014_ne30np4.nc',
         'C2H6 -> /glade/p/acom/acom-climate/tilmes/emis/CAMS_Anthro_ne30/CAMS-GLOB-ANT_Glb_ne30_ne30_anthro_surface_C2H6_v3.1_c20191105.nc',
         'C2H6 -> /glade/p/acom/acom-nsc/musicav0/emissions/FINN/ne30np4/comb/emissions-finn1.5_C2H6_bb_surface_2011_2014_ne30np4.nc',
         'C2H6 -> /glade/p/acom/acom-climate/cmip6inputs/historical_ne30/emissions-cmip6_C2H6_other_surface_1750_2015_ne30_ne30_c20200103.nc',
         'C3H6 -> /glade/p/acom/acom-climate/tilmes/emis/CAMS_Anthro_ne30/CAMS-GLOB-ANT_Glb_ne30_ne30_anthro_surface_C3H6_v3.1_c20191105.nc',
         'C3H6 -> /glade/p/acom/acom-nsc/musicav0/emissions/FINN/ne30np4/comb/emissions-finn1.5_C3H6_bb_surface_2011_2014_ne30np4.nc',
         'C3H6 -> /glade/p/acom/acom-climate/cmip6inputs/historical_ne30/emissions-cmip6_C3H6_other_surface_1750_2015_ne30_ne30_c20200103.nc',
         'C3H8 -> /glade/p/acom/acom-climate/tilmes/emis/CAMS_Anthro_ne30/CAMS-GLOB-ANT_Glb_ne30_ne30_anthro_surface_C3H8_v3.1_c20191105.nc',
         'C3H8 -> /glade/p/acom/acom-nsc/musicav0/emissions/FINN/ne30np4/comb/emissions-finn1.5_C3H8_bb_surface_2011_2014_ne30np4.nc',
         'C3H8 -> /glade/p/acom/acom-climate/cmip6inputs/historical_ne30/emissions-cmip6_C3H8_other_surface_1750_2015_ne30_ne30_c20200103.nc',
         'CH2O -> /glade/p/acom/acom-climate/tilmes/emis/CAMS_Anthro_ne30/CAMS-GLOB-ANT_Glb_ne30_ne30_anthro_surface_CH2O_v3.1_c20191105.nc',
         'CH2O -> /glade/p/acom/acom-nsc/musicav0/emissions/FINN/ne30np4/comb/emissions-finn1.5_CH2O_bb_surface_2011_2014_ne30np4.nc',
         'CH3CHO -> /glade/p/acom/acom-climate/tilmes/emis/CAMS_Anthro_ne30/CAMS-GLOB-ANT_Glb_ne30_ne30_anthro_surface_CH3CHO_v3.1_c20191105.nc',
         'CH3CHO -> /glade/p/acom/acom-nsc/musicav0/emissions/FINN/ne30np4/comb/emissions-finn1.5_CH3CHO_bb_surface_2011_2014_ne30np4.nc',
         'CH3CN -> /glade/p/acom/acom-climate/tilmes/emis/CAMS_Anthro_ne30/CAMS-GLOB-ANT_Glb_ne30_ne30_anthro_surface_CH3CN_v3.1_c20191105.nc',
         'CH3CN -> /glade/p/acom/acom-nsc/musicav0/emissions/FINN/ne30np4/comb/emissions-finn1.5_CH3CN_bb_surface_2011_2014_ne30np4.nc',
         'CH3COCH3 -> /glade/p/acom/acom-climate/tilmes/emis/CAMS_Anthro_ne30/CAMS-GLOB-ANT_Glb_ne30_ne30_anthro_surface_CH3COCH3_v3.1_c20191105.nc',
         'CH3COCH3 -> /glade/p/acom/acom-nsc/musicav0/emissions/FINN/ne30np4/comb/emissions-finn1.5_CH3COCH3_bb_surface_2011_2014_ne30np4.nc',
         'CH3COCHO -> /glade/p/acom/acom-nsc/musicav0/emissions/FINN/ne30np4/comb/emissions-finn1.5_CH3COCHO_bb_surface_2011_2014_ne30np4.nc',
         'CH3COOH -> /glade/p/acom/acom-climate/tilmes/emis/CAMS_Anthro_ne30/CAMS-GLOB-ANT_Glb_ne30_ne30_anthro_surface_CH3COOH_v3.1_c20191105.nc',
         'CH3COOH -> /glade/p/acom/acom-nsc/musicav0/emissions/FINN/ne30np4/comb/emissions-finn1.5_CH3COOH_bb_surface_2011_2014_ne30np4.nc',
         'CH3OH -> /glade/p/acom/acom-climate/tilmes/emis/CAMS_Anthro_ne30/CAMS-GLOB-ANT_Glb_ne30_ne30_anthro_surface_CH3OH_v3.1_c20191105.nc',
         'CH3OH -> /glade/p/acom/acom-nsc/musicav0/emissions/FINN/ne30np4/comb/emissions-finn1.5_CH3OH_bb_surface_2011_2014_ne30np4.nc',
         'CO -> /glade/p/acom/acom-climate/tilmes/emis/CAMS_Anthro_ne30/CAMS-GLOB-ANT_Glb_ne30_ne30_anthro_surface_CO_v3.1_c20191105.nc',
         'CO -> /glade/p/acom/acom-nsc/musicav0/emissions/FINN/ne30np4/comb/emissions-finn1.5_CO_bb_surface_2011_2014_ne30np4.nc',
         'CO -> /glade/p/acom/acom-climate/cmip6inputs/historical_ne30/emissions-cmip6_CO_other_surface_1750_2015_ne30_ne30_c20200103.nc',
         'CRESOL -> /glade/p/acom/acom-nsc/musicav0/emissions/FINN/ne30np4/comb/emissions-finn1.5_CRESOL_bb_surface_2011_2014_ne30np4.nc',
         'E90 -> /glade/p/cesmdata/cseg/inputdata/atm/cam/chem/emis/CMIP6_emissions_1750_2015/emissions_E90global_surface_1750-2100_0.9x1.25_c20170322.nc',
         'GLYALD -> /glade/p/acom/acom-nsc/musicav0/emissions/FINN/ne30np4/comb/emissions-finn1.5_GLYALD_bb_surface_2011_2014_ne30np4.nc',
         'HCN -> /glade/p/acom/acom-climate/tilmes/emis/CAMS_Anthro_ne30/CAMS-GLOB-ANT_Glb_ne30_ne30_anthro_surface_HCN_v3.1_c20191105.nc',
         'HCN -> /glade/p/acom/acom-nsc/musicav0/emissions/FINN/ne30np4/comb/emissions-finn1.5_HCN_bb_surface_2011_2014_ne30np4.nc',
         'HCOOH -> /glade/p/acom/acom-climate/tilmes/emis/CAMS_Anthro_ne30/CAMS-GLOB-ANT_Glb_ne30_ne30_anthro_surface_HCOOH_v3.1_c20191105.nc',
         'HCOOH -> /glade/p/acom/acom-nsc/musicav0/emissions/FINN/ne30np4/comb/emissions-finn1.5_HCOOH_bb_surface_2011_2014_ne30np4.nc',
         'HYAC -> /glade/p/acom/acom-nsc/musicav0/emissions/FINN/ne30np4/comb/emissions-finn1.5_HYAC_bb_surface_2011_2014_ne30np4.nc',
         'ISOP -> /glade/p/acom/acom-climate/tilmes/emis/CAMS_Anthro_ne30/CAMS-GLOB-ANT_Glb_ne30_ne30_anthro_surface_ISOP_v3.1_c20191105.nc',
         'ISOP -> /glade/p/acom/acom-nsc/musicav0/emissions/FINN/ne30np4/comb/emissions-finn1.5_ISOP_bb_surface_2011_2014_ne30np4.nc',
         'IVOC -> /glade/p/acom/acom-climate/tilmes/emis/CAMS_Anthro_ne30/CAMS-GLOB-ANT_Glb_ne30_ne30_anthro_surface_IVOC_v3.1_c20191105.nc',
         'IVOC -> /glade/p/acom/acom-nsc/musicav0/emissions/FINN/ne30np4/comb/emissions-finn1.5_IVOC_bb_surface_2011_2014_ne30np4.nc',
         'MACR -> /glade/p/acom/acom-nsc/musicav0/emissions/FINN/ne30np4/comb/emissions-finn1.5_MACR_bb_surface_2011_2014_ne30np4.nc',
         'MEK -> /glade/p/acom/acom-climate/tilmes/emis/CAMS_Anthro_ne30/CAMS-GLOB-ANT_Glb_ne30_ne30_anthro_surface_MEK_v3.1_c20191105.nc',
         'MEK -> /glade/p/acom/acom-nsc/musicav0/emissions/FINN/ne30np4/comb/emissions-finn1.5_MEK_bb_surface_2011_2014_ne30np4.nc',
         'MVK -> /glade/p/acom/acom-nsc/musicav0/emissions/FINN/ne30np4/comb/emissions-finn1.5_MVK_bb_surface_2011_2014_ne30np4.nc',
         'MTERP -> /glade/p/acom/acom-climate/tilmes/emis/CAMS_Anthro_ne30/CAMS-GLOB-ANT_Glb_ne30_ne30_anthro_surface_MTERP_v3.1_c20191105.nc',
         'MTERP -> /glade/p/acom/acom-nsc/musicav0/emissions/FINN/ne30np4/comb/emissions-finn1.5_TERPENES_bb_surface_2011_2014_ne30np4.nc',
         'NH3 -> /glade/p/acom/acom-climate/tilmes/emis/CAMS_Anthro_ne30/CAMS-GLOB-ANT_Glb_ne30_ne30_anthro_surface_NH3_v3.1_c20191105.nc',
         'NH3 -> /glade/p/acom/acom-nsc/musicav0/emissions/FINN/ne30np4/comb/emissions-finn1.5_NH3_bb_surface_2011_2014_ne30np4.nc',
         'NH3 -> /glade/p/acom/acom-climate/cmip6inputs/historical_ne30/emissions-cmip6_NH3_other_surface_1750_2015_ne30_ne30_c20200103.nc',
         'NO2 -> /glade/p/acom/acom-nsc/musicav0/emissions/FINN/ne30np4/comb/emissions-finn1.5_NO2_bb_surface_2011_2014_ne30np4.nc',